24

C       -5.235015   -0.313668    0.157134
C       -3.737807   -0.465983    0.072025
C       -3.116351   -1.291591   -0.867450
C       -1.725726   -1.384544   -0.893195
C       -0.977958   -0.644930    0.029757
C        0.508117   -0.749629    0.051246
C        1.097284   -2.023380    0.127523
C        2.477405   -2.204194    0.165834
C        3.284939   -1.075619    0.125084
F        4.626085   -1.220504    0.165289
C        2.760547    0.207627    0.036151
C        1.375055    0.354613   -0.003114
Br        0.706612    2.140195   -0.207918
N       -1.559814    0.152366    0.946087
C       -2.892756    0.228522    0.951784
H       -5.740057   -0.920713   -0.598295
H       -5.533929    0.729698    0.009294
H       -5.606593   -0.618772    1.141380
H       -3.713543   -1.853941   -1.579837
H       -1.224633   -2.011105   -1.623301
H        0.447694   -2.891307    0.174075
H        2.922621   -3.189785    0.233662
H        3.423459    1.062136   -0.013963
H       -3.328899    0.881618    1.707227
