21

C       -1.424076   -1.173725    0.245743
C       -2.817309   -1.193477    0.257144
C       -3.540218   -0.022788    0.010273
C       -2.856425    1.166353   -0.251910
C       -1.461550    1.187590   -0.260340
C       -0.724175    0.018988   -0.005702
C        0.763580    0.021578   -0.002668
C        1.499965    1.184870    0.280233
C        2.891127    1.132166    0.263635
C        3.518247   -0.079930   -0.023122
C        2.709287   -1.189330   -0.273054
N        1.372125   -1.153225   -0.268501
H       -0.859231   -2.079678    0.434716
H       -3.340644   -2.122789    0.461694
H       -4.625832   -0.038476    0.018060
H       -3.408255    2.078378   -0.458456
H       -0.948406    2.115382   -0.491683
H        0.993503    2.109741    0.530579
H        3.474541    2.021424    0.481098
H        4.598780   -0.169570   -0.046041
H        3.159948   -2.155610   -0.491844
