30

C       -5.802403   -0.300829    0.101230
C       -4.301014   -0.201409    0.035348
C       -3.502383   -1.284777   -0.352425
C       -2.120512   -1.148013   -0.394521
C       -1.537438    0.079826   -0.034314
C       -0.065861    0.287939   -0.046029
C        0.454895    1.608037   -0.191400
C        1.808724    1.837467   -0.213911
C        2.736912    0.767680   -0.084861
C        4.142626    0.969048   -0.103658
C        5.007722   -0.095172    0.031575
C        4.504340   -1.410764    0.192875
C        3.146053   -1.638371    0.214532
C        2.226647   -0.562149    0.074020
C        0.822530   -0.765872    0.090916
N       -2.296970    1.132963    0.325082
C       -3.625540    0.982481    0.352896
H       -6.218223   -0.631548   -0.856583
H       -6.255784    0.661305    0.354055
H       -6.115323   -1.029943    0.857069
H       -3.964046   -2.228266   -0.631578
H       -1.503611   -1.976230   -0.724291
H       -0.246311    2.428881   -0.288105
H        2.189118    2.848423   -0.334562
H        4.525284    1.978838   -0.225994
H        6.080820    0.070131    0.016251
H        5.196799   -2.240413    0.299128
H        2.757942   -2.646099    0.337004
H        0.457669   -1.777989    0.238972
H       -4.197336    1.861442    0.649415
