33

C        5.647596    0.796343    0.000095
N        4.309688    0.220454    0.000035
C        3.117347    0.857959    0.000059
C        2.172626   -0.157184   -0.000036
C        0.707295   -0.079989   -0.000034
C        0.039282    1.152008   -0.000102
C       -1.354453    1.214311   -0.000086
C       -2.141687    0.054218   -0.000006
C       -3.678704    0.081815    0.000016
C       -4.203543   -0.642708   -1.261798
C       -4.203513   -0.642586    1.261913
C       -4.238733    1.516001   -0.000042
C       -1.460803   -1.176812    0.000057
C       -0.072501   -1.248844    0.000044
N        2.849970   -1.348160   -0.000111
N        4.137738   -1.117967   -0.000077
H        5.791433    1.408935   -0.892099
H        6.360131   -0.027369    0.000164
H        5.791323    1.408995    0.892265
H        3.040667    1.933189    0.000127
H        0.605681    2.078826   -0.000174
H       -1.820419    2.192476   -0.000139
H       -3.876304   -1.685870   -1.297351
H       -3.848517   -0.146282   -2.170971
H       -5.299040   -0.635584   -1.274266
H       -3.876281   -1.685747    1.297558
H       -5.299009   -0.635454    1.274405
H       -3.848460   -0.146075    2.171029
H       -3.923853    2.074397   -0.887615
H       -3.923820    2.074476    0.887469
H       -5.332732    1.482860   -0.000024
H       -2.024974   -2.104449    0.000121
H        0.421149   -2.214807    0.000098
