28

C        5.039941   -1.764751    0.279562
C        3.956857   -0.743098    0.118090
C        4.092429    0.640365   -0.159807
C        2.810455    1.148264   -0.202173
C        2.351153    2.537936   -0.511081
N        1.976443    0.081088    0.052385
C        0.561492    0.030514    0.060185
C       -0.192966    1.060908    0.634573
C       -1.583506    0.990659    0.621714
C       -2.223422   -0.116461    0.061671
C       -3.722074   -0.165846    0.000652
F       -4.191204   -1.434628    0.050921
F       -4.296930    0.518629    1.016953
F       -4.199017    0.376389   -1.149365
C       -1.469392   -1.157048   -0.489913
C       -0.081559   -1.084254   -0.496020
N        2.676528   -1.083418    0.237979
H        5.669301   -1.814849   -0.615405
H        4.608829   -2.752988    0.455772
H        5.694250   -1.517106    1.122427
H        5.004453    1.196124   -0.323108
H        3.143348    3.065441   -1.046331
H        2.126308    3.110846    0.395125
H        1.452827    2.538167   -1.134756
H        0.298371    1.898555    1.112182
H       -2.167899    1.785920    1.070264
H       -1.967868   -2.020041   -0.916965
H        0.515194   -1.880402   -0.923065
