34

C        6.741444   -0.188007    0.002433
C        5.240813   -0.048707    0.004047
C        4.596016    1.189071    0.072382
C        3.204954    1.249935    0.072840
C        2.463126    0.061354   -0.006080
C        0.977735    0.056743   -0.015300
C        0.233648    1.172938   -0.433053
C       -1.157852    1.150095   -0.428741
C       -1.865936    0.011609   -0.007086
C       -3.349392   -0.010273    0.000041
C       -4.086557    1.136070    0.346805
C       -5.481020    1.116101    0.352752
C       -6.169758   -0.051204    0.013853
C       -5.450729   -1.198057   -0.331931
C       -4.056278   -1.177609   -0.339607
C       -1.118659   -1.106916    0.403534
C        0.271516   -1.086396    0.396041
N        3.075960   -1.140878   -0.061506
C        4.409728   -1.177343   -0.053953
H        7.231368    0.788730    0.022605
H        7.087817   -0.722499   -0.888790
H        7.086407   -0.757104    0.872868
H        5.179338    2.103793    0.134719
H        2.706315    2.209004    0.154961
H        0.740228    2.060346   -0.798524
H       -1.702431    2.017526   -0.788670
H       -3.562590    2.041785    0.636788
H       -6.029860    2.011075    0.630943
H       -7.255464   -0.066988    0.019158
H       -5.976036   -2.108618   -0.604919
H       -3.509277   -2.067824   -0.634903
H       -1.633969   -1.994133    0.758821
H        0.830714   -1.955945    0.722670
H        4.858922   -2.169422   -0.101050
