19

C        1.079568   -1.200376   -0.000044
C        2.473120   -1.222765   -0.000045
C        3.205638   -0.033727   -0.000004
C        2.526033    1.185742    0.000043
C        1.131920    1.224375    0.000047
C        0.404445    0.027019   -0.000001
N       -1.018278    0.042269   -0.000003
C       -1.857036    1.123732   -0.000067
C       -3.145862    0.637267   -0.000046
C       -2.993755   -0.768307    0.000047
N       -1.713760   -1.129096    0.000080
H        0.507684   -2.118959   -0.000078
H        2.986178   -2.179783   -0.000080
H        4.290763   -0.056564   -0.000006
H        3.079573    2.119726    0.000081
H        0.629930    2.184474    0.000098
H       -1.491168    2.137423   -0.000144
H       -4.059387    1.212373   -0.000091
H       -3.763733   -1.528660    0.000093
