27

C        5.565418   -0.105552   -0.000060
C        4.058825   -0.032733   -0.000191
C        3.386576    1.198273    0.000625
C        1.996633    1.260418    0.000803
C        1.237602    0.079441    0.000178
C       -0.217490    0.157478    0.000205
N       -0.963838    1.226143   -0.000626
C       -2.271989    0.744758   -0.000261
C       -3.503146    1.407848   -0.000634
C       -4.654458    0.619165   -0.000376
C       -4.587773   -0.787227    0.000241
C       -3.363485   -1.463364    0.000605
C       -2.235647   -0.657794    0.000350
O       -0.914802   -1.034029    0.000559
C        1.900537   -1.159974   -0.000651
C        3.289935   -1.207602   -0.000826
H        6.017040    0.889549   -0.004743
H        5.931891   -0.649382   -0.877856
H        5.932056   -0.640912    0.882915
H        3.960988    2.120314    0.001144
H        1.487705    2.218158    0.001432
H       -3.553692    2.491365   -0.001156
H       -5.627845    1.099530   -0.000697
H       -5.508082   -1.362372    0.000421
H       -3.298368   -2.545274    0.001093
H        1.324092   -2.078369   -0.001168
H        3.790266   -2.172188   -0.001526
