24

C        5.010616   -0.134951    0.039073
C        3.508154   -0.033787    0.006690
C        2.851644    1.173423   -0.262269
C        1.462785    1.220822   -0.274701
C        0.730462    0.051649   -0.004857
C       -0.756030    0.036310    0.003187
C       -1.505897    1.199873    0.246823
C       -2.899578    1.173362    0.246019
C       -3.541782   -0.034211    0.000866
F       -4.894657   -0.067950   -0.002734
C       -2.838002   -1.209931   -0.235970
C       -1.446386   -1.166158   -0.230464
N        1.351744   -1.117959    0.242194
C        2.688590   -1.143973    0.241501
H        5.451811    0.247041   -0.887682
H        5.338837   -1.169465    0.170423
H        5.426853    0.457063    0.862020
H        3.427645    2.070763   -0.472600
H        0.955737    2.148679   -0.513917
H       -1.005333    2.137276    0.464300
H       -3.484796    2.065030    0.441054
H       -3.377945   -2.131526   -0.423415
H       -0.875471   -2.069655   -0.410762
H        3.144908   -2.112515    0.444437
