27

F       -5.107094    0.152892    1.290259
C       -4.653635    0.115611    0.011883
F       -5.222588   -0.964587   -0.570492
F       -5.144359    1.214860   -0.605497
C       -3.152980    0.062116   -0.042100
C       -2.414271    1.249569   -0.035339
C       -1.026151    1.201383   -0.027055
C       -0.354526   -0.035176   -0.023635
C        1.116176   -0.047201   -0.014307
N        1.842791    1.032010   -0.013815
C        3.194174    0.742560   -0.002101
C        4.224097    1.696776    0.001476
C        5.543048    1.260478    0.013913
C        5.850474   -0.112854    0.022847
C        4.844486   -1.076459    0.019366
C        3.518231   -0.637439    0.006797
S        2.041076   -1.577465   -0.000323
C       -1.109524   -1.219397   -0.031837
C       -2.499863   -1.172106   -0.040108
H       -2.925664    2.205599   -0.043802
H       -0.445448    2.115986   -0.025230
H        3.973494    2.752290   -0.005443
H        6.348924    1.987467    0.016874
H        6.888685   -0.429338    0.032646
H        5.085435   -2.133992    0.026354
H       -0.619174   -2.187513   -0.034591
H       -3.075063   -2.090755   -0.052153
