28

C        4.870808   -1.303998    0.171365
O        3.453033   -1.458932    0.182757
C        2.680148   -0.341279    0.043359
C        3.181508    0.958001   -0.111374
C        2.279890    2.018264   -0.245758
C        0.904988    1.806100   -0.221002
C        0.397923    0.502652   -0.058049
C       -1.065498    0.234071   -0.020380
C       -1.992342    1.223370    0.350974
C       -3.348098    0.917635    0.365484
C       -3.778290   -0.369162    0.020127
C       -5.235875   -0.748653    0.013166
C       -2.775696   -1.286435   -0.316260
N       -1.467746   -1.010767   -0.342270
C        1.297554   -0.560685    0.066717
H        5.283274   -2.305780    0.295683
H        5.212932   -0.666876    0.995923
H        5.222433   -0.883226   -0.778436
H        4.246536    1.152232   -0.132401
H        2.665744    3.024592   -0.379361
H        0.232547    2.646067   -0.355314
H       -1.657290    2.211072    0.646159
H       -4.072744    1.674360    0.654533
H       -5.702547   -0.539655    0.981747
H       -5.371117   -1.811036   -0.206614
H       -5.787804   -0.175876   -0.740595
H       -3.051858   -2.306165   -0.583544
H        0.927739   -1.572169    0.185844
