24

C       -5.849344    0.456416   -0.028857
C       -4.372709    0.158085   -0.005090
C       -3.859949   -1.096073    0.334750
C       -2.483226   -1.307700    0.339141
C       -1.627715   -0.253375   -0.008965
C       -0.149088   -0.408907   -0.029906
C        0.470135   -1.662970   -0.148750
C        1.856251   -1.776065   -0.160257
C        2.658442   -0.638342   -0.056055
Cl        4.400514   -0.828376   -0.073888
C        2.051742    0.620606    0.054083
Cl        3.005115    2.089083    0.186819
C        0.664287    0.729165    0.064277
N       -2.109924    0.965647   -0.327638
C       -3.430727    1.149509   -0.320470
H       -6.438161   -0.428439    0.224986
H       -6.165485    0.802133   -1.018990
H       -6.102741    1.248320    0.684487
H       -4.533377   -1.904913    0.604136
H       -2.087435   -2.273797    0.630295
H       -0.122997   -2.563699   -0.257047
H        2.326753   -2.747520   -0.259052
H        0.202677    1.705043    0.146590
H       -3.774050    2.149226   -0.585171
