24

C        6.197378   -0.162965    0.036252
C        4.695961   -0.049159    0.005310
C        4.049696    1.165195   -0.254915
C        2.661067    1.224403   -0.265166
C        1.920647    0.059050   -0.004023
C        0.433932    0.053897    0.004529
C       -0.309117    1.222363    0.240140
C       -1.702898    1.203874    0.240271
C       -2.363020    0.000216    0.002862
Br       -4.281126   -0.035528   -0.002208
C       -1.656043   -1.179509   -0.226363
C       -0.264207   -1.144524   -0.220686
N        2.531532   -1.117640    0.234165
C        3.867644   -1.154795    0.233569
H        6.641370    0.228607   -0.885060
H        6.517366   -1.201685    0.153458
H        6.617679    0.414494    0.867413
H        4.632945    2.059107   -0.459292
H        2.161874    2.158455   -0.496245
H        0.194217    2.159711    0.451459
H       -2.264746    2.110970    0.430587
H       -2.183365   -2.108752   -0.409450
H        0.298896   -2.054070   -0.395447
H        4.316187   -2.128154    0.430013
