41

C       -1.425135    1.734642   -0.140298
C       -2.767411    1.381794   -0.222421
C       -3.188978    0.061346    0.015839
C       -4.621484   -0.314822   -0.072731
C       -5.457685    0.255074   -1.049245
C       -6.804345   -0.097732   -1.132829
C       -7.344653   -1.028866   -0.242415
C       -6.525699   -1.603545    0.732704
C       -5.179253   -1.250135    0.817038
C       -2.207030   -0.888601    0.344971
C       -0.862980   -0.536888    0.425840
C       -0.443932    0.780783    0.177976
C        0.986678    1.176694    0.251906
C        2.015945    0.243844    0.056361
C        3.356607    0.641508    0.138312
C        4.460831   -0.328802   -0.058739
C        4.344871   -1.651411    0.402335
C        5.383523   -2.563286    0.217982
C        6.555765   -2.170953   -0.432837
C        6.682729   -0.859193   -0.896476
C        5.645862    0.054262   -0.709928
C        3.605427    1.996662    0.403915
C        2.523821    2.859751    0.560821
N        1.243203    2.479579    0.493922
H       -1.119338    2.759501   -0.318097
H       -3.503524    2.145245   -0.454997
H       -5.043636    0.961055   -1.762732
H       -7.430037    0.349187   -1.899861
H       -8.393082   -1.303753   -0.307668
H       -6.937256   -2.322356    1.435192
H       -4.559217   -1.684706    1.595268
H       -2.496158   -1.919344    0.524899
H       -0.139270   -1.297327    0.700892
H        1.776908   -0.781093   -0.201440
H        3.447365   -1.959705    0.929677
H        5.279657   -3.578482    0.588975
H        7.363961   -2.881496   -0.577170
H        7.587319   -0.547875   -1.410137
H        5.745495    1.064831   -1.093814
H        4.618137    2.371634    0.502674
H        2.699413    3.914877    0.762387
