24

C        2.107614    1.215707    0.221398
C        3.248648    0.908540   -0.525486
C        3.529983   -0.416629   -0.861732
C        2.662870   -1.432696   -0.447422
C        1.525265   -1.123009    0.297768
C        1.235977    0.205303    0.643551
C       -0.019050    0.532580    1.437843
C       -1.276417    0.272721    0.630057
C       -1.814191    1.262642   -0.203483
C       -2.942132    0.968824   -0.965483
C       -3.499192   -0.307761   -0.875372
C       -2.894975   -1.228420   -0.020331
N       -1.810179   -0.958057    0.721663
H        1.894016    2.249573    0.480448
H        3.915727    1.705043   -0.842725
H        4.416627   -0.657442   -1.440825
H        2.874293   -2.466673   -0.705061
H        0.843824   -1.909079    0.610331
H        0.008721    1.579682    1.754140
H       -0.059280   -0.087499    2.338830
H       -1.349542    2.242648   -0.248626
H       -3.378887    1.720402   -1.616187
H       -4.378013   -0.584249   -1.448063
H       -3.302639   -2.232828    0.078241
