24

C        4.874298   -0.427263   -0.013138
C        3.389139   -0.178074    0.004815
C        2.851438    1.077406    0.312397
C        1.473820    1.262240    0.309480
C        0.635070    0.181852   -0.012257
C       -0.846710    0.313739   -0.037755
C       -1.478785    1.556622   -0.215854
C       -2.870660    1.651829   -0.231211
C       -3.665168    0.515331   -0.071409
C       -3.023052   -0.706747    0.095315
F       -3.777395   -1.822062    0.251251
C       -1.643128   -0.833220    0.112925
N        1.140700   -1.033760   -0.296015
C        2.467793   -1.192438   -0.282571
H        5.333099   -0.142822    0.939766
H        5.362259    0.165001   -0.795339
H        5.100567   -1.480621   -0.198381
H        3.509921    1.904818    0.563108
H        1.057324    2.226825    0.575688
H       -0.887846    2.452753   -0.368711
H       -3.342513    2.618448   -0.376282
H       -4.748244    0.562233   -0.078439
H       -1.186752   -1.806551    0.243133
H        2.829496   -2.192874   -0.518129
