31

C        3.654503    0.683038    0.414239
C        4.878438    0.030065    0.546919
C        4.984123   -1.333448    0.258144
C        3.855315   -2.036663   -0.168493
C        2.629250   -1.384405   -0.298980
C        2.509156   -0.015948   -0.003476
C        1.209223    0.696485   -0.130328
C       -0.011645    0.018109   -0.002507
C       -1.222744    0.710000   -0.133165
C       -2.525593    0.012492   -0.008558
C       -2.689870   -1.294238   -0.499247
C       -3.915243   -1.949460   -0.383136
C       -4.997869   -1.311931    0.227743
C       -4.846808   -0.013305    0.720253
C       -3.622775    0.643938    0.601848
C       -1.146427    2.089830   -0.375812
C        0.108051    2.687882   -0.464165
N        1.265407    2.026576   -0.351370
H        3.568529    1.740873    0.636520
H        5.750986    0.585006    0.879125
H        5.938180   -1.841886    0.360457
H        3.929567   -3.093077   -0.408812
H        1.769118   -1.940861   -0.657649
H       -0.021476   -1.037835    0.240843
H       -1.861251   -1.789452   -0.996139
H       -4.026118   -2.955573   -0.776218
H       -5.951615   -1.822785    0.318956
H       -5.680830    0.486813    1.203335
H       -3.509428    1.644380    1.007925
H       -2.042658    2.685581   -0.509329
H        0.184640    3.758143   -0.647101
