34

C        3.445728    2.600474   -0.342099
C        2.102903    1.923504   -0.222186
C        0.933774    2.692884   -0.296029
N       -0.312161    2.219055   -0.238118
C       -0.473488    0.887584   -0.104196
C       -1.871079    0.384118   -0.046095
C       -2.910270    1.245855    0.342718
C       -4.228100    0.802502    0.413452
C       -4.514173   -0.522438    0.084987
Cl       -6.181253   -1.095675    0.171003
C       -3.509116   -1.401263   -0.314898
C       -2.195079   -0.941389   -0.378845
C        0.628241    0.029708   -0.007117
C        1.934760    0.531749   -0.062225
C        3.073717   -0.420411    0.035806
C        3.094101   -1.570303   -0.771071
C        4.140637   -2.487718   -0.677554
C        5.179945   -2.275354    0.231244
C        5.165708   -1.140012    1.045121
C        4.123175   -0.218568    0.946574
H        3.349523    3.552871   -0.870507
H        4.163089    1.975848   -0.880469
H        3.880184    2.816441    0.640319
H        1.023378    3.771191   -0.424771
H       -2.672863    2.273217    0.593353
H       -5.021855    1.473253    0.722422
H       -3.749325   -2.424352   -0.580657
H       -1.424463   -1.626061   -0.716365
H        0.483492   -1.033140    0.148828
H        2.291810   -1.733895   -1.484473
H        4.144946   -3.366324   -1.315644
H        5.994291   -2.989689    0.305690
H        5.964722   -0.972550    1.761098
H        4.111195    0.650752    1.595426
