27

C        4.792255   -0.218984    0.952306
C        4.134351   -0.024534   -0.425537
C        2.629698    0.056885   -0.334215
C        1.969434    1.237284    0.025021
C        0.583630    1.250555    0.137245
C       -0.140448    0.074096   -0.121073
C       -1.623913    0.024092   -0.022285
C       -2.412499    1.177131   -0.176337
C       -3.802006    1.110653   -0.072553
C       -4.431046   -0.109344    0.185493
C       -3.658016   -1.264554    0.332439
C       -2.270035   -1.199205    0.226670
N        0.486571   -1.070898   -0.458501
C        1.819566   -1.063600   -0.554958
H        5.881802   -0.267836    0.860479
H        4.445723   -1.145586    1.421257
H        4.543023    0.609580    1.623295
H        4.416701   -0.853216   -1.084718
H        4.521608    0.891874   -0.886094
H        2.540371    2.140968    0.222484
H        0.073555    2.157945    0.439863
H       -1.945175    2.130002   -0.403182
H       -4.393416    2.012262   -0.201830
H       -5.512668   -0.160288    0.267119
H       -4.137714   -2.218200    0.532970
H       -1.667439   -2.093671    0.338661
H        2.281817   -2.010404   -0.834089
