34

C        2.922738    2.683234   -0.375757
C        1.617816    1.938159   -0.240151
C        0.409669    2.644057   -0.313146
N       -0.809967    2.106627   -0.243002
C       -0.901434    0.769817   -0.094611
C       -2.269482    0.193172   -0.021889
C       -3.348251    0.998447    0.383390
C       -4.639908    0.485240    0.466998
C       -4.848518   -0.848851    0.134940
F       -6.100806   -1.355719    0.213154
C       -3.812432   -1.676967   -0.279584
C       -2.525337   -1.147653   -0.356839
C        0.245231   -0.027684    0.003481
C        1.523212    0.540991   -0.066158
C        2.710774   -0.349822    0.032977
C        2.784900   -1.505846   -0.761945
C        3.877918   -2.367217   -0.667003
C        4.911447   -2.091889    0.231425
C        4.844511   -0.949969    1.033375
C        3.755101   -0.084563    0.933369
H        2.772758    3.625261   -0.910261
H        3.667521    2.093063   -0.915860
H        3.353582    2.929226    0.601218
H        0.442049    3.724402   -0.452495
H       -3.160013    2.035557    0.635721
H       -5.476296    1.097153    0.786353
H       -4.019566   -2.707920   -0.543776
H       -1.721198   -1.786757   -0.705586
H        0.156648   -1.094875    0.171606
H        1.986893   -1.718198   -1.467250
H        3.922814   -3.251289   -1.295930
H        5.762052   -2.762512    0.307046
H        5.639001   -0.733864    1.741340
H        3.703055    0.789882    1.573280
