34

C        2.358475    2.766142   -0.416663
C        1.109116    1.934743   -0.260886
C       -0.145176    2.555404   -0.331968
N       -1.324735    1.937164   -0.244119
C       -1.323392    0.599015   -0.079098
C       -2.647557   -0.071604    0.012874
C       -3.772987    0.653405    0.440510
C       -5.020371    0.040038    0.540438
C       -5.170265   -1.309641    0.209418
C       -4.061367   -2.038462   -0.226545
C       -2.812151   -1.425707   -0.325040
C       -0.123798   -0.116668    0.018050
C        1.111976    0.536723   -0.069204
C        2.358312   -0.269836    0.030219
C        2.502924   -1.430558   -0.748081
C        3.652449   -2.214766   -0.651801
C        4.673681   -1.856297    0.231243
C        4.537438   -0.709017    1.016560
C        3.391077    0.079234    0.915261
H        2.139978    3.688298   -0.962133
H        3.138568    2.221636   -0.954887
H        2.778007    3.054530    0.553632
H       -0.187548    3.633596   -0.485101
H       -3.652892    1.700387    0.696074
H       -5.876836    0.615089    0.880341
H       -6.142405   -1.787334    0.286475
H       -4.169174   -3.084162   -0.499066
H       -1.967904   -2.001314   -0.691118
H       -0.139137   -1.185311    0.199117
H        1.714319   -1.707369   -1.441524
H        3.750905   -3.103589   -1.267819
H        5.568352   -2.466791    0.307825
H        5.322316   -0.428709    1.712662
H        3.286295    0.958012    1.542626
