30

C       -0.958072    1.611449   -0.000171
C       -2.312217    1.839606   -0.000187
C       -3.239749    0.761458   -0.000073
C       -4.644496    0.968504   -0.000060
C       -5.512121   -0.101912    0.000058
C       -5.015076   -1.430225    0.000161
C       -3.658765   -1.665332    0.000151
C       -2.735894   -0.582167    0.000038
C       -1.336562   -0.792306    0.000051
C       -0.455585    0.277819   -0.000051
C        0.980774    0.026152   -0.000049
N        1.596024   -1.122800   -0.000200
C        2.951238   -0.799012   -0.000116
C        4.095673   -1.602980   -0.000204
C        5.331487   -0.955375   -0.000065
C        5.431073    0.449380    0.000161
C        4.295501    1.265349    0.000256
C        3.080429    0.598194    0.000105
O        1.813320    1.127146    0.000150
H       -0.261250    2.441582   -0.000269
H       -2.692327    2.857205   -0.000293
H       -5.024146    1.986476   -0.000145
H       -6.584484    0.068017    0.000071
H       -5.711862   -2.262786    0.000251
H       -3.273464   -2.681158    0.000226
H       -0.948065   -1.805739    0.000146
H        4.018102   -2.684880   -0.000375
H        6.241554   -1.546992   -0.000128
H        6.412931    0.911726    0.000263
H        4.358466    2.347377    0.000423
