28

C        5.323931   -0.661528   -0.124992
O        4.465822    0.462178    0.070667
C        3.118851    0.259373    0.036983
C        2.501569   -0.978007   -0.186907
C        1.108257   -1.062039   -0.196016
C        0.299047    0.063372    0.015157
C       -1.182940   -0.018999    0.012121
C       -1.865373   -1.219668    0.281648
C       -3.254191   -1.237197    0.256918
C       -3.964681   -0.062797   -0.022392
C       -5.470149   -0.031311   -0.064480
C       -3.195128    1.082272   -0.255468
N       -1.858189    1.119060   -0.245959
C        0.941124    1.299187    0.227497
C        2.323762    1.399126    0.242090
H        6.341847   -0.277791   -0.051579
H        5.176400   -1.111627   -1.113875
H        5.167062   -1.424839    0.646385
H        3.086779   -1.871832   -0.363664
H        0.656215   -2.027929   -0.397363
H       -1.318165   -2.122128    0.529582
H       -3.789542   -2.159783    0.466153
H       -5.899410   -0.398907    0.873895
H       -5.855727   -0.670448   -0.866830
H       -5.843852    0.982186   -0.233588
H       -3.694403    2.027779   -0.466838
H        0.333306    2.182842    0.386155
H        2.815758    2.350927    0.414998
