42

C       -0.730715    1.877614   -0.089057
C        0.730775    1.877696   -0.088169
N        1.363850    3.072682   -0.182475
C        2.688454    3.071529   -0.169379
C        3.474207    1.910020   -0.089665
C        2.858573    0.669106   -0.011709
C        3.693946   -0.559794    0.030788
C        3.494045   -1.609068   -0.882107
C        4.317563   -2.734522   -0.860354
C        5.351533   -2.830754    0.074251
C        5.561486   -1.791590    0.983818
C        4.742068   -0.662945    0.959668
C        1.430557    0.639213    0.018388
C        0.680719   -0.569613    0.202495
C       -0.680723   -0.569622    0.202331
C       -1.430517    0.639145    0.017641
C       -2.858522    0.669026   -0.013087
C       -3.693967   -0.559808    0.030554
C       -4.741804   -0.662091    0.959850
C       -5.561247   -1.790692    0.985255
C       -5.351614   -2.830651    0.076526
C       -4.317959   -2.735261   -0.858513
C       -3.494405   -1.609851   -0.881517
C       -3.474142    1.909848   -0.092495
C       -2.688374    3.071293   -0.173050
N       -1.363767    3.072474   -0.185110
H        3.175036    4.043145   -0.240282
H        4.556046    1.985056   -0.117923
H        2.701889   -1.531794   -1.620252
H        4.154317   -3.533519   -1.577231
H        5.990105   -3.708697    0.092225
H        6.361951   -1.859746    1.714329
H        4.902363    0.140630    1.672169
H        1.214637   -1.497700    0.366870
H       -1.214652   -1.497707    0.366647
H       -4.901831    0.142121    1.671691
H       -6.361468   -1.858199    1.716093
H       -5.990199   -3.708564    0.095481
H       -4.154995   -3.534883   -1.574758
H       -2.702483   -1.533236   -1.619983
H       -4.555971    1.984823   -0.121269
H       -3.174937    4.042804   -0.245508
