34

C       -3.618278    1.956291   -0.000031
C       -2.874983    0.641993   -0.000017
C       -3.511862   -0.595259    0.000046
C       -5.006232   -0.818968    0.000123
C       -2.693728   -1.753535    0.000057
N       -1.375130   -1.771341    0.000019
C       -0.734634   -0.573876   -0.000035
C       -1.443542    0.656895   -0.000055
C       -0.691221    1.877079   -0.000107
C        0.671895    1.879603   -0.000086
C        1.433989    0.663661   -0.000033
C        2.864108    0.635555    0.000034
C        3.695330    1.898698    0.000178
C        3.492264   -0.608054   -0.000007
C        4.989903   -0.804664    0.000063
C        2.677725   -1.762359   -0.000102
N        1.357198   -1.771716   -0.000115
C        0.723384   -0.573318   -0.000064
H       -4.698931    1.827145   -0.000003
H       -3.356651    2.552320   -0.880960
H       -3.356610    2.552362    0.880858
H       -5.585294    0.103439   -0.000058
H       -5.305856   -1.398315    0.880478
H       -5.305892   -1.398685   -0.879974
H       -3.185125   -2.727662    0.000098
H       -1.213763    2.826161   -0.000166
H        1.184329    2.833415   -0.000141
H        3.099605    2.809097    0.000364
H        4.344909    1.933350   -0.880531
H        4.345003    1.933067    0.880828
H        5.546392    0.131941   -0.000069
H        5.302075   -1.378123   -0.879954
H        5.302033   -1.377847    0.880277
H        3.164592   -2.738716   -0.000164
