40

C        2.265928    2.076137   -1.273072
C        1.915040    1.271630    0.000134
C        2.265432    2.075900    1.273611
C        0.509158    0.686631   -0.000092
C        0.509132   -0.686729   -0.000175
C        1.915026   -1.271758   -0.000132
C        2.265562   -2.076445    1.272970
C        2.265806   -2.075770   -1.273681
C        2.778219   -0.000036    0.000230
O        3.993088   -0.000042    0.000595
C       -0.723695   -1.430762   -0.000149
C       -0.786093   -2.844761   -0.000398
C       -2.009908   -3.480140   -0.000120
C       -3.174040   -2.689846    0.000429
N       -3.163351   -1.365110    0.000513
C       -1.966206   -0.729478    0.000132
C       -1.966155    0.729552    0.000004
C       -0.723607    1.430746   -0.000058
C       -0.785880    2.844756   -0.000200
C       -2.009645    3.480236   -0.000237
C       -3.173831    2.690021   -0.000183
N       -3.163244    1.365286   -0.000063
H        1.743330    3.034332   -1.301758
H        2.001696    1.518315   -2.176214
H        3.341928    2.270773   -1.287208
H        1.742752    3.034033    1.302190
H        3.341424    2.270516    1.288284
H        2.000789    1.517966    2.176596
H        1.743131   -3.034730    1.301194
H        2.000850   -1.518897    2.176156
H        3.341596   -2.270850    1.287490
H        1.743429   -3.034074   -1.302538
H        3.341853   -2.270110   -1.288181
H        2.001177   -1.517745   -2.176600
H        0.121931   -3.432069   -0.000846
H       -2.081313   -4.562411   -0.000368
H       -4.153017   -3.166528    0.000775
H        0.122196    3.431999   -0.000280
H       -2.080976    4.562512   -0.000413
H       -4.152775    3.166767   -0.000278
