26

C        5.019403   -0.073295   -0.000005
C        3.514956   -0.003223   -0.000001
C        2.830409    1.219246    0.000051
C        1.441399    1.236172    0.000055
C        0.744359    0.017526    0.000068
C       -0.744368   -0.017551   -0.000055
N       -1.387118    1.164774   -0.000069
C       -2.723949    1.158950   -0.000016
C       -3.514948    0.003260   -0.000015
C       -5.019401    0.073306   -0.000003
C       -2.830426   -1.219231    0.000039
C       -1.441421   -1.236198    0.000057
N        1.387139   -1.164794   -0.000034
C        2.723962   -1.158941   -0.000082
H        5.436400    0.426577   -0.881204
H        5.372010   -1.108086    0.000227
H        5.436402    0.426985    0.880954
H        3.386883    2.152974    0.000069
H        0.886526    2.166049    0.000070
H       -3.204904    2.136613   -0.000123
H       -5.372060    1.108081    0.000255
H       -5.436342   -0.426999    0.880973
H       -5.436351   -0.426581   -0.881210
H       -3.386959   -2.152926    0.000067
H       -0.886558   -2.166079    0.000171
H        3.204961   -2.136587   -0.000090
