28

C       -3.409187   -2.455561    0.000015
C       -2.712982   -1.118184    0.000023
N       -1.385206   -1.114359    0.000022
C       -0.728508    0.073959    0.000001
C        0.728507    0.073960    0.000002
N        1.385206   -1.114360   -0.000017
C        2.712982   -1.118184   -0.000017
C        3.409188   -2.455560   -0.000020
C        3.477658    0.077045    0.000015
C        2.826954    1.288344    0.000020
C        1.412557    1.322270    0.000010
C        0.681124    2.554177    0.000006
C       -0.681124    2.554177   -0.000008
C       -1.412558    1.322271   -0.000010
C       -2.826954    1.288344   -0.000020
C       -3.477658    0.077044   -0.000016
H       -2.675716   -3.263455   -0.000061
H       -4.052954   -2.560608   -0.880598
H       -4.052829   -2.560669    0.880713
H        2.675716   -3.263455    0.000034
H        4.052941   -2.560619    0.880601
H        4.052844   -2.560656   -0.880709
H        4.561800    0.023380    0.000035
H        3.383297    2.221748    0.000037
H        1.236686    3.487812    0.000012
H       -1.236685    3.487812   -0.000016
H       -3.383299    2.221746   -0.000041
H       -4.561800    0.023381   -0.000043
