40

O        5.500911    1.360876   -0.025071
C        5.036821    0.003130   -0.001197
C        5.542815   -0.726915   -1.258356
C        5.544404   -0.682883    1.279914
C        3.512764    0.067844   -0.000881
C        2.811499    1.276531   -0.017162
C        1.419821    1.266009   -0.015183
C        0.744357    0.039133    0.002727
C       -0.743042   -0.024964    0.004209
N       -1.407999    1.147480    0.006413
C       -2.742333    1.119628    0.012536
C       -3.512649   -0.053211    0.017577
C       -5.044538   -0.009231   -0.000197
O       -5.589680   -1.325419    0.175562
C       -5.592256    0.913069    1.101287
C       -5.532272    0.438222   -1.384639
C       -2.809498   -1.260695    0.002704
C       -1.418205   -1.252534   -0.000444
N        1.409061   -1.133495    0.018593
C        2.742871   -1.104889    0.016766
H        6.467397    1.334115   -0.025311
H        6.638229   -0.748129   -1.261355
H        5.200249   -0.205103   -2.155784
H        5.186988   -1.760108   -1.296588
H        6.639812   -0.705381    1.281699
H        5.187098   -1.713558    1.355005
H        5.204081   -0.129277    2.158969
H        3.355682    2.212738   -0.031451
H        0.850429    2.187008   -0.027707
H       -3.229829    2.092636    0.008448
H       -5.420227   -1.597140    1.089353
H       -5.240651    0.587526    2.086170
H       -6.685042    0.876414    1.088944
H       -5.280561    1.950841    0.958502
H       -5.181968   -0.261256   -2.148635
H       -5.154142    1.435075   -1.625155
H       -6.625809    0.460908   -1.402216
H       -3.355333   -2.197334   -0.011462
H       -0.849074   -2.173707   -0.008848
H        3.232031   -2.077278    0.030509
