18

C        0.465625    0.085641    0.000034
C       -0.997946    0.130733   -0.000009
C       -1.921712    1.171931   -0.000386
C       -3.177985    0.535044   -0.000166
N       -3.063099   -0.799228    0.000207
N       -1.734117   -1.013398    0.000364
N        1.013587   -1.147573   -0.000213
C        2.348009   -1.238430   -0.000173
C        3.198932   -0.131667   -0.000071
C        2.625133    1.140713    0.000168
C        1.238215    1.256361    0.000263
H       -1.715150    2.231277   -0.000588
H       -4.159460    0.990202   -0.000315
H        2.758562   -2.245919   -0.000396
H        4.274832   -0.267129   -0.000073
H        3.248010    2.029612    0.000177
H        0.760002    2.229524    0.000615
H       -1.351028   -1.948133    0.000111
