40

C       -0.712459   -1.786739    0.086774
C        0.753797   -1.760442   -0.198482
N        1.299296   -2.886191   -0.697789
C        2.611382   -2.865789   -0.959821
C        3.436416   -1.762483   -0.750111
C        2.881259   -0.588935   -0.219980
C        3.704511    0.616253    0.041285
C        5.029195    0.496656    0.495022
C        5.801747    1.630965    0.741490
C        5.265924    2.904660    0.535567
C        3.950909    3.036391    0.082720
C        3.176308    1.902903   -0.160953
C        1.507806   -0.608826    0.059969
C       -1.491193   -0.637002   -0.095137
C       -2.864765   -0.665893    0.182912
C       -3.717155    0.532748   -0.006800
C       -3.486452    1.417882   -1.073719
C       -4.289377    2.544175   -1.249898
C       -5.334888    2.807971   -0.361658
C       -5.573395    1.935868    0.703356
C       -4.773456    0.807272    0.878479
C       -3.392555   -1.881678    0.640908
C       -2.542200   -2.976225    0.785604
N       -1.231290   -2.952457    0.518374
H        3.030958   -3.781513   -1.372236
H        4.487367   -1.814644   -1.012671
H        5.447420   -0.488013    0.679669
H        6.820342    1.519801    1.100780
H        5.868427    3.787521    0.726323
H        3.529263    4.022355   -0.087762
H        2.163152    2.015535   -0.534594
H        1.037526    0.254152    0.517237
H       -1.030963    0.277174   -0.452302
H       -2.691494    1.209882   -1.783244
H       -4.102296    3.212057   -2.085331
H       -5.958888    3.685910   -0.498446
H       -6.379125    2.137228    1.402827
H       -4.953087    0.147570    1.721785
H       -4.450540   -1.986121    0.855094
H       -2.942255   -3.926760    1.133604
