44

C        3.178908   -2.324990   -0.678760
C        3.720842   -1.171924    0.198353
C        3.579747   -1.549467    1.691527
C        5.214537   -0.978023   -0.117984
C        2.901831    0.095775   -0.078296
C        3.458021    1.291798   -0.543079
C        2.629516    2.396861   -0.752986
N        1.309675    2.401741   -0.548896
C        0.757651    1.252180   -0.110359
C       -0.720661    1.246624    0.107573
N       -1.279082    2.385966    0.552090
C       -2.603073    2.371198    0.754551
C       -3.417074    1.263683    0.534300
C       -2.850693    0.070164    0.060589
C       -3.727348   -1.161072   -0.203318
C       -4.427135   -1.570759    1.113757
C       -4.794043   -0.804039   -1.264626
C       -2.910219   -2.360937   -0.715251
C       -1.469689    0.087693   -0.153436
C        1.516384    0.103337    0.139511
H        3.752968   -3.238532   -0.491458
H        3.264624   -2.079399   -1.742229
H        2.128180   -2.540864   -0.464626
H        4.156913   -2.455604    1.903726
H        2.538965   -1.744234    1.965731
H        3.955376   -0.746522    2.333972
H        5.755629   -1.906230    0.089135
H        5.660127   -0.189724    0.497205
H        5.376270   -0.726894   -1.171211
H        4.518082    1.387749   -0.741614
H        3.061672    3.329798   -1.111704
H       -3.041312    3.298793    1.118990
H       -4.481270    1.343032    0.728056
H       -5.061404   -0.769653    1.503854
H       -3.691417   -1.826490    1.883153
H       -5.061583   -2.446815    0.942766
H       -5.437350    0.016399   -0.934040
H       -5.432223   -1.672200   -1.460278
H       -4.322375   -0.507143   -2.206953
H       -2.149227   -2.671584    0.007997
H       -2.413410   -2.138364   -1.665100
H       -3.577056   -3.212260   -0.881810
H       -0.962116   -0.784540   -0.543403
H        1.022764   -0.781288    0.525088
