26

F       -5.433199   -0.486983    1.205518
C       -4.977787   -0.092198   -0.008087
C       -3.481402    0.028095   -0.025796
C       -2.686106   -1.074235   -0.352754
N       -1.353019   -1.046864   -0.340680
C       -0.746297    0.105935    0.000282
C        0.746298    0.105928   -0.000293
N        1.353013   -1.046866    0.340671
C        2.686106   -1.074237    0.352759
C        3.481400    0.028085    0.025807
C        4.977785   -0.092199    0.008094
F        5.433203   -0.486902   -1.205541
F        5.578366    1.086395    0.287402
F        5.419760   -1.000415    0.906644
C        2.855025    1.220053   -0.333658
C        1.465467    1.260299   -0.346397
C       -1.465461    1.260299    0.346389
C       -2.855025    1.220056    0.333659
F       -5.419756   -1.000360   -0.906701
F       -5.578372    1.086412   -0.287318
H       -3.151312   -2.012178   -0.644595
H        3.151301   -2.012185    0.644598
H        3.440092    2.093976   -0.597432
H        0.950651    2.166949   -0.641028
H       -3.440082    2.093983    0.597439
H       -0.950648    2.166953    0.641014
